IEEETestCases/37Bus/ieee37_701_elem_kVA.txt

  Bus   (node ref)  Node       V (kV)    Angle    p.u.   Base kV

701 ....... 1        2.704 /_   -4.0   0.97572     4.800        1-2     4.7926 /_   26.8   0.99846
   -        2        2.832 /_ -123.9    1.0219     4.800        2-3     4.9093 /_  -95.4    1.0228
   -        3       2.7731 /_  113.8    1.0007     4.800        3-1     4.6898 /_  144.5   0.97705

CIRCUIT ELEMENT CURRENTS

(Currents into element from indicated bus)

Power Delivery Elements

  Bus         Phase    Magnitude, A     Angle      (Real)   +j  (Imag)

ELEMENT = "Line.L1"
701             1           268.02 /_  -34.5 =     220.82 +j    -151.9
701             2           222.06 /_ -152.7 =    -197.39 +j   -101.73
701             3           254.71 /_   95.3 =    -23.437 +j    253.63
701         Resid       0.00018403 /_  155.7 =   -0.00016778 +j 7.5623E-005
------------
702             1           268.05 /_  145.5 =    -220.82 +j    151.96
702             2           222.09 /_   27.3 =     197.44 +j    101.69
702             3           254.73 /_  -84.7 =     23.379 +j   -253.65
702         Resid       0.00014423 /_  -19.3 =   0.00013608 +j -4.7781E-005


ELEMENT = "Line.L35"
799R            1           354.43 /_  -39.6 =     273.16 +j   -225.84
799R            2            261.2 /_ -150.5 =    -227.39 +j   -128.52
799R            3            357.3 /_   97.4 =    -45.769 +j    354.35
799R        Resid       0.00030459 /_  145.6 =   -0.00025125 +j 0.0001722
------------
701             1           354.52 /_  140.4 =    -273.15 +j    225.99
701             2           261.27 /_   29.4 =     227.52 +j    128.43
701             3           357.34 /_  -82.7 =     45.626 +j   -354.42
701         Resid       0.00018403 /_  -24.3 =   0.00016778 +j -7.5623E-005


= = = = = = = = = = = = = = = = = = =  = = = = = = = = = = =  = =

Power Conversion Elements

  Bus         Phase    Magnitude, A     Angle      (Real)   +j  (Imag)

ELEMENT = "Load.S701A"
701             1           13.278 /_   -1.5 =     13.273 +j  -0.35481
701             2           13.278 /_  178.5 =    -13.273 +j   0.35481


ELEMENT = "Load.S701B"
701             2           31.882 /_ -121.9 =    -16.867 +j   -27.054
701             3           31.882 /_   58.1 =     16.867 +j    27.054


ELEMENT = "Load.S701C"
701             3           83.439 /_  117.9 =    -39.057 +j    73.733
701             1           83.439 /_  -62.1 =     39.057 +j   -73.733



CIRCUIT ELEMENT POWER FLOW

(Power Flow into element from indicated Bus)

  Bus       Phase     kW     +j   kvar           kVA           PF

ELEMENT = "Line.L1"          
701             1     624.21 +j     368.22        724.73      0.8613
701             2      550.9 +j     303.29        628.87      0.8760
701             3     669.72 +j     224.45        706.33      0.9482
 TERMINAL TOTAL       1844.8 +j     895.96        2050.9      0.8995
------------
ELEMENT = "Line.L1"          
702             1    -619.55 +j    -364.24        718.69      0.8621
702             2    -548.33 +j    -300.78        625.41      0.8768
702             3    -665.99 +j    -220.14        701.43      0.9495
 TERMINAL TOTAL      -1833.9 +j    -885.15        2036.3      0.9006
ELEMENT = "Line.L35"         
701             1    -779.29 +j    -558.24        958.61      0.8129
701             2    -661.25 +j    -331.97         739.9      0.8937
701             3    -950.27 +j    -280.98        990.94      0.9590
 TERMINAL TOTAL      -2390.8 +j    -1171.2        2662.3      0.8980
------------
ELEMENT = "Line.L35"         
799R            1     790.45 +j     567.28        972.94      0.8124
799R            2     665.97 +j     336.94        746.35      0.8923
799R            3     961.29 +j     292.19        1004.7      0.9568
 TERMINAL TOTAL       2417.7 +j     1196.4        2697.5      0.8963
= = = = = = = = = = = = = = = = = = =  = = = = = = = = = = =  = =

Power Conversion Elements

  Bus         Phase     kW   +j  kvar         kVA         PF

ELEMENT = "Load.S701A"       
701             1      35.87 +j     -1.538        35.903     -0.9991
701             2      20.13 +j      31.76        37.602      0.5354
 TERMINAL TOTAL           56 +j     30.222        63.635      0.8800

ELEMENT = "Load.S701B"       
701             2     90.236 +j    -3.0839        90.288     -0.9994
701             3     49.759 +j     73.079        88.411      0.5628
 TERMINAL TOTAL       139.99 +j     69.996        156.52      0.8944

ELEMENT = "Load.S701C"       
701             3     230.79 +j    -16.554        231.38     -0.9974
701             1     119.21 +j     191.55        225.62      0.5284
 TERMINAL TOTAL       350.01 +j        175        391.31      0.8944

